<configuration>
    <input>
       <net-file value="test.net.xml"/>
       <route-files value="test.rou.xml"/>
    </input>
	
	<time>
		<begin value="0.0" />
		<step-length value="1.0" />
		<end value="86400.0" />
	</time>
</configuration>