<routes>
        <vType id="type1" accel="0.8" decel="4.5" sigma="0.5" length="5" minGap="2.5" maxSpeed="16.67"/>
        <route id="R1" edges="ASI RSIII" />
        <route id="R2" edges="ASII RSI" />
        <route id="R3" edges="ASII RSIV" />
        <route id="R4" edges="ASIII RSII" />
        <route id="R5" edges="ASIII RSI" />
        <route id="R6" edges="ASIV RSIII" />
        <route id="R7" edges="ASIV RSII" />
        <route id="R8" edges="ASI RSIV" />
        <route id="R9" edges="ASI RSII" />
        <route id="R10" edges="ASII RSIII" />
        <route id="R11" edges="ASIII RSIV" />
        <route id="R12" edges="ASIV RSI" />
         <flow id="typeR9_0" route="R9"  color="1,1,0"  begin="1" end= "300" number="20" type="type1">
     </flow>
         <flow id="typeR10_0" route="R10"  color="1,1,0"  begin="1" end= "300" number="11" type="type1">
     </flow>
         <flow id="typeR11_0" route="R11"  color="1,1,0"  begin="1" end= "300" number="10" type="type1">
     </flow>
         <flow id="typeR12_0" route="R12"  color="1,1,0"  begin="1" end= "300" number="14" type="type1">
     </flow>
         <flow id="typeR1_0" route="R1"  color="1,0,1"  begin="1" end= "300" number="2" type="type1">
     </flow>
         <flow id="typeR2_0" route="R2"  color="0,1,1"  begin="1" end= "300" number="2" type="type1">
     </flow>
         <flow id="typeR3_0" route="R3"  color="1,0,1"  begin="1" end= "300" number="2" type="type1">
     </flow>
         <flow id="typeR4_0" route="R4"  color="0,1,1"  begin="1" end= "300" number="2" type="type1">
     </flow>
         <flow id="typeR5_0" route="R5"  color="1,0,1"  begin="1" end= "300" number="6" type="type1">
     </flow>
         <flow id="typeR6_0" route="R6"  color="0,1,1"  begin="1" end= "300" number="2" type="type1">
     </flow>
         <flow id="typeR7_0" route="R7"  color="1,0,1"  begin="1" end= "300" number="2" type="type1">
     </flow>
         <flow id="typeR80" route="R8"  color="0,1,1"  begin="1" end= "300" number="1" type="type1">
     </flow>
         <flow id="typeR9_1" route="R9"  color="1,1,0"  begin="301" end= "600" number="13" type="type1">
     </flow>
         <flow id="typeR10_1" route="R10"  color="1,1,0"  begin="301" end= "600" number="13" type="type1">
     </flow>
         <flow id="typeR11_1" route="R11"  color="1,1,0"  begin="301" end= "600" number="12" type="type1">
     </flow>
         <flow id="typeR12_1" route="R12"  color="1,1,0"  begin="301" end= "600" number="11" type="type1">
     </flow>
         <flow id="typeR1_1" route="R1"  color="1,0,1"  begin="301" end= "600" number="2" type="type1">
     </flow>
         <flow id="typeR2_1" route="R2"  color="0,1,1"  begin="301" end= "600" number="3" type="type1">
     </flow>
         <flow id="typeR3_1" route="R3"  color="1,0,1"  begin="301" end= "600" number="3" type="type1">
     </flow>
         <flow id="typeR4_1" route="R4"  color="0,1,1"  begin="301" end= "600" number="2" type="type1">
     </flow>
         <flow id="typeR5_1" route="R5"  color="1,0,1"  begin="301" end= "600" number="4" type="type1">
     </flow>
         <flow id="typeR6_1" route="R6"  color="0,1,1"  begin="301" end= "600" number="1" type="type1">
     </flow>
         <flow id="typeR7_1" route="R7"  color="1,0,1"  begin="301" end= "600" number="1" type="type1">
     </flow>
         <flow id="typeR81" route="R8"  color="0,1,1"  begin="301" end= "600" number="1" type="type1">
     </flow>
         <flow id="typeR9_2" route="R9"  color="1,1,0"  begin="601" end= "900" number="20" type="type1">
     </flow>
         <flow id="typeR10_2" route="R10"  color="1,1,0"  begin="601" end= "900" number="18" type="type1">
     </flow>
         <flow id="typeR11_2" route="R11"  color="1,1,0"  begin="601" end= "900" number="11" type="type1">
     </flow>
         <flow id="typeR12_2" route="R12"  color="1,1,0"  begin="601" end= "900" number="19" type="type1">
     </flow>
         <flow id="typeR1_2" route="R1"  color="1,0,1"  begin="601" end= "900" number="4" type="type1">
     </flow>
         <flow id="typeR2_2" route="R2"  color="0,1,1"  begin="601" end= "900" number="2" type="type1">
     </flow>
         <flow id="typeR3_2" route="R3"  color="1,0,1"  begin="601" end= "900" number="2" type="type1">
     </flow>
         <flow id="typeR4_2" route="R4"  color="0,1,1"  begin="601" end= "900" number="1" type="type1">
     </flow>
         <flow id="typeR5_2" route="R5"  color="1,0,1"  begin="601" end= "900" number="4" type="type1">
     </flow>
         <flow id="typeR6_2" route="R6"  color="0,1,1"  begin="601" end= "900" number="1" type="type1">
     </flow>
         <flow id="typeR7_2" route="R7"  color="1,0,1"  begin="601" end= "900" number="1" type="type1">
     </flow>
         <flow id="typeR82" route="R8"  color="0,1,1"  begin="601" end= "900" number="1" type="type1">
     </flow>
         <flow id="typeR9_3" route="R9"  color="1,1,0"  begin="901" end= "1200" number="16" type="type1">
     </flow>
         <flow id="typeR10_3" route="R10"  color="1,1,0"  begin="901" end= "1200" number="10" type="type1">
     </flow>
         <flow id="typeR11_3" route="R11"  color="1,1,0"  begin="901" end= "1200" number="10" type="type1">
     </flow>
         <flow id="typeR12_3" route="R12"  color="1,1,0"  begin="901" end= "1200" number="11" type="type1">
     </flow>
         <flow id="typeR1_3" route="R1"  color="1,0,1"  begin="901" end= "1200" number="4" type="type1">
     </flow>
         <flow id="typeR2_3" route="R2"  color="0,1,1"  begin="901" end= "1200" number="3" type="type1">
     </flow>
         <flow id="typeR3_3" route="R3"  color="1,0,1"  begin="901" end= "1200" number="2" type="type1">
     </flow>
         <flow id="typeR4_3" route="R4"  color="0,1,1"  begin="901" end= "1200" number="2" type="type1">
     </flow>
         <flow id="typeR5_3" route="R5"  color="1,0,1"  begin="901" end= "1200" number="6" type="type1">
     </flow>
         <flow id="typeR6_3" route="R6"  color="0,1,1"  begin="901" end= "1200" number="2" type="type1">
     </flow>
         <flow id="typeR7_3" route="R7"  color="1,0,1"  begin="901" end= "1200" number="2" type="type1">
     </flow>
         <flow id="typeR83" route="R8"  color="0,1,1"  begin="901" end= "1200" number="1" type="type1">
     </flow>
         <flow id="typeR9_4" route="R9"  color="1,1,0"  begin="1201" end= "1500" number="13" type="type1">
     </flow>
         <flow id="typeR10_4" route="R10"  color="1,1,0"  begin="1201" end= "1500" number="13" type="type1">
     </flow>
         <flow id="typeR11_4" route="R11"  color="1,1,0"  begin="1201" end= "1500" number="18" type="type1">
     </flow>
         <flow id="typeR12_4" route="R12"  color="1,1,0"  begin="1201" end= "1500" number="19" type="type1">
     </flow>
         <flow id="typeR1_4" route="R1"  color="1,0,1"  begin="1201" end= "1500" number="4" type="type1">
     </flow>
         <flow id="typeR2_4" route="R2"  color="0,1,1"  begin="1201" end= "1500" number="2" type="type1">
     </flow>
         <flow id="typeR3_4" route="R3"  color="1,0,1"  begin="1201" end= "1500" number="3" type="type1">
     </flow>
         <flow id="typeR4_4" route="R4"  color="0,1,1"  begin="1201" end= "1500" number="2" type="type1">
     </flow>
         <flow id="typeR5_4" route="R5"  color="1,0,1"  begin="1201" end= "1500" number="6" type="type1">
     </flow>
         <flow id="typeR6_4" route="R6"  color="0,1,1"  begin="1201" end= "1500" number="1" type="type1">
     </flow>
         <flow id="typeR7_4" route="R7"  color="1,0,1"  begin="1201" end= "1500" number="2" type="type1">
     </flow>
         <flow id="typeR84" route="R8"  color="0,1,1"  begin="1201" end= "1500" number="1" type="type1">
     </flow>
         <flow id="typeR9_5" route="R9"  color="1,1,0"  begin="1501" end= "1800" number="10" type="type1">
     </flow>
         <flow id="typeR10_5" route="R10"  color="1,1,0"  begin="1501" end= "1800" number="18" type="type1">
     </flow>
         <flow id="typeR11_5" route="R11"  color="1,1,0"  begin="1501" end= "1800" number="13" type="type1">
     </flow>
         <flow id="typeR12_5" route="R12"  color="1,1,0"  begin="1501" end= "1800" number="20" type="type1">
     </flow>
         <flow id="typeR1_5" route="R1"  color="1,0,1"  begin="1501" end= "1800" number="2" type="type1">
     </flow>
         <flow id="typeR2_5" route="R2"  color="0,1,1"  begin="1501" end= "1800" number="2" type="type1">
     </flow>
         <flow id="typeR3_5" route="R3"  color="1,0,1"  begin="1501" end= "1800" number="2" type="type1">
     </flow>
         <flow id="typeR4_5" route="R4"  color="0,1,1"  begin="1501" end= "1800" number="1" type="type1">
     </flow>
         <flow id="typeR5_5" route="R5"  color="1,0,1"  begin="1501" end= "1800" number="4" type="type1">
     </flow>
         <flow id="typeR6_5" route="R6"  color="0,1,1"  begin="1501" end= "1800" number="2" type="type1">
     </flow>
         <flow id="typeR7_5" route="R7"  color="1,0,1"  begin="1501" end= "1800" number="2" type="type1">
     </flow>
         <flow id="typeR85" route="R8"  color="0,1,1"  begin="1501" end= "1800" number="1" type="type1">
     </flow>
         <flow id="typeR9_6" route="R9"  color="1,1,0"  begin="1801" end= "2100" number="18" type="type1">
     </flow>
         <flow id="typeR10_6" route="R10"  color="1,1,0"  begin="1801" end= "2100" number="16" type="type1">
     </flow>
         <flow id="typeR11_6" route="R11"  color="1,1,0"  begin="1801" end= "2100" number="13" type="type1">
     </flow>
         <flow id="typeR12_6" route="R12"  color="1,1,0"  begin="1801" end= "2100" number="17" type="type1">
     </flow>
         <flow id="typeR1_6" route="R1"  color="1,0,1"  begin="1801" end= "2100" number="4" type="type1">
     </flow>
         <flow id="typeR2_6" route="R2"  color="0,1,1"  begin="1801" end= "2100" number="2" type="type1">
     </flow>
         <flow id="typeR3_6" route="R3"  color="1,0,1"  begin="1801" end= "2100" number="4" type="type1">
     </flow>
         <flow id="typeR4_6" route="R4"  color="0,1,1"  begin="1801" end= "2100" number="1" type="type1">
     </flow>
         <flow id="typeR5_6" route="R5"  color="1,0,1"  begin="1801" end= "2100" number="4" type="type1">
     </flow>
         <flow id="typeR6_6" route="R6"  color="0,1,1"  begin="1801" end= "2100" number="1" type="type1">
     </flow>
         <flow id="typeR7_6" route="R7"  color="1,0,1"  begin="1801" end= "2100" number="1" type="type1">
     </flow>
         <flow id="typeR86" route="R8"  color="0,1,1"  begin="1801" end= "2100" number="1" type="type1">
     </flow>
         <flow id="typeR9_7" route="R9"  color="1,1,0"  begin="2101" end= "2400" number="19" type="type1">
     </flow>
         <flow id="typeR10_7" route="R10"  color="1,1,0"  begin="2101" end= "2400" number="14" type="type1">
     </flow>
         <flow id="typeR11_7" route="R11"  color="1,1,0"  begin="2101" end= "2400" number="10" type="type1">
     </flow>
         <flow id="typeR12_7" route="R12"  color="1,1,0"  begin="2101" end= "2400" number="12" type="type1">
     </flow>
         <flow id="typeR1_7" route="R1"  color="1,0,1"  begin="2101" end= "2400" number="4" type="type1">
     </flow>
         <flow id="typeR2_7" route="R2"  color="0,1,1"  begin="2101" end= "2400" number="2" type="type1">
     </flow>
         <flow id="typeR3_7" route="R3"  color="1,0,1"  begin="2101" end= "2400" number="3" type="type1">
     </flow>
         <flow id="typeR4_7" route="R4"  color="0,1,1"  begin="2101" end= "2400" number="1" type="type1">
     </flow>
         <flow id="typeR5_7" route="R5"  color="1,0,1"  begin="2101" end= "2400" number="4" type="type1">
     </flow>
         <flow id="typeR6_7" route="R6"  color="0,1,1"  begin="2101" end= "2400" number="1" type="type1">
     </flow>
         <flow id="typeR7_7" route="R7"  color="1,0,1"  begin="2101" end= "2400" number="1" type="type1">
     </flow>
         <flow id="typeR87" route="R8"  color="0,1,1"  begin="2101" end= "2400" number="1" type="type1">
     </flow>
         <flow id="typeR9_8" route="R9"  color="1,1,0"  begin="2401" end= "2700" number="16" type="type1">
     </flow>
         <flow id="typeR10_8" route="R10"  color="1,1,0"  begin="2401" end= "2700" number="15" type="type1">
     </flow>
         <flow id="typeR11_8" route="R11"  color="1,1,0"  begin="2401" end= "2700" number="14" type="type1">
     </flow>
         <flow id="typeR12_8" route="R12"  color="1,1,0"  begin="2401" end= "2700" number="12" type="type1">
     </flow>
         <flow id="typeR1_8" route="R1"  color="1,0,1"  begin="2401" end= "2700" number="4" type="type1">
     </flow>
         <flow id="typeR2_8" route="R2"  color="0,1,1"  begin="2401" end= "2700" number="2" type="type1">
     </flow>
         <flow id="typeR3_8" route="R3"  color="1,0,1"  begin="2401" end= "2700" number="2" type="type1">
     </flow>
         <flow id="typeR4_8" route="R4"  color="0,1,1"  begin="2401" end= "2700" number="1" type="type1">
     </flow>
         <flow id="typeR5_8" route="R5"  color="1,0,1"  begin="2401" end= "2700" number="4" type="type1">
     </flow>
         <flow id="typeR6_8" route="R6"  color="0,1,1"  begin="2401" end= "2700" number="1" type="type1">
     </flow>
         <flow id="typeR7_8" route="R7"  color="1,0,1"  begin="2401" end= "2700" number="1" type="type1">
     </flow>
         <flow id="typeR88" route="R8"  color="0,1,1"  begin="2401" end= "2700" number="1" type="type1">
     </flow>
         <flow id="typeR9_9" route="R9"  color="1,1,0"  begin="2701" end= "3000" number="13" type="type1">
     </flow>
         <flow id="typeR10_9" route="R10"  color="1,1,0"  begin="2701" end= "3000" number="15" type="type1">
     </flow>
         <flow id="typeR11_9" route="R11"  color="1,1,0"  begin="2701" end= "3000" number="11" type="type1">
     </flow>
         <flow id="typeR12_9" route="R12"  color="1,1,0"  begin="2701" end= "3000" number="11" type="type1">
     </flow>
         <flow id="typeR1_9" route="R1"  color="1,0,1"  begin="2701" end= "3000" number="4" type="type1">
     </flow>
         <flow id="typeR2_9" route="R2"  color="0,1,1"  begin="2701" end= "3000" number="2" type="type1">
     </flow>
         <flow id="typeR3_9" route="R3"  color="1,0,1"  begin="2701" end= "3000" number="2" type="type1">
     </flow>
         <flow id="typeR4_9" route="R4"  color="0,1,1"  begin="2701" end= "3000" number="1" type="type1">
     </flow>
         <flow id="typeR5_9" route="R5"  color="1,0,1"  begin="2701" end= "3000" number="4" type="type1">
     </flow>
         <flow id="typeR6_9" route="R6"  color="0,1,1"  begin="2701" end= "3000" number="1" type="type1">
     </flow>
         <flow id="typeR7_9" route="R7"  color="1,0,1"  begin="2701" end= "3000" number="2" type="type1">
     </flow>
         <flow id="typeR89" route="R8"  color="0,1,1"  begin="2701" end= "3000" number="1" type="type1">
     </flow>
         <flow id="typeR9_10" route="R9"  color="1,1,0"  begin="3001" end= "3300" number="16" type="type1">
     </flow>
         <flow id="typeR10_10" route="R10"  color="1,1,0"  begin="3001" end= "3300" number="11" type="type1">
     </flow>
         <flow id="typeR11_10" route="R11"  color="1,1,0"  begin="3001" end= "3300" number="15" type="type1">
     </flow>
         <flow id="typeR12_10" route="R12"  color="1,1,0"  begin="3001" end= "3300" number="15" type="type1">
     </flow>
         <flow id="typeR1_10" route="R1"  color="1,0,1"  begin="3001" end= "3300" number="4" type="type1">
     </flow>
         <flow id="typeR2_10" route="R2"  color="0,1,1"  begin="3001" end= "3300" number="2" type="type1">
     </flow>
         <flow id="typeR3_10" route="R3"  color="1,0,1"  begin="3001" end= "3300" number="2" type="type1">
     </flow>
         <flow id="typeR4_10" route="R4"  color="0,1,1"  begin="3001" end= "3300" number="2" type="type1">
     </flow>
         <flow id="typeR5_10" route="R5"  color="1,0,1"  begin="3001" end= "3300" number="6" type="type1">
     </flow>
         <flow id="typeR6_10" route="R6"  color="0,1,1"  begin="3001" end= "3300" number="1" type="type1">
     </flow>
         <flow id="typeR7_10" route="R7"  color="1,0,1"  begin="3001" end= "3300" number="2" type="type1">
     </flow>
         <flow id="typeR810" route="R8"  color="0,1,1"  begin="3001" end= "3300" number="1" type="type1">
     </flow>
         <flow id="typeR9_11" route="R9"  color="1,1,0"  begin="3301" end= "3600" number="19" type="type1">
     </flow>
         <flow id="typeR10_11" route="R10"  color="1,1,0"  begin="3301" end= "3600" number="14" type="type1">
     </flow>
         <flow id="typeR11_11" route="R11"  color="1,1,0"  begin="3301" end= "3600" number="10" type="type1">
     </flow>
         <flow id="typeR12_11" route="R12"  color="1,1,0"  begin="3301" end= "3600" number="17" type="type1">
     </flow>
         <flow id="typeR1_11" route="R1"  color="1,0,1"  begin="3301" end= "3600" number="2" type="type1">
     </flow>
         <flow id="typeR2_11" route="R2"  color="0,1,1"  begin="3301" end= "3600" number="2" type="type1">
     </flow>
         <flow id="typeR3_11" route="R3"  color="1,0,1"  begin="3301" end= "3600" number="2" type="type1">
     </flow>
         <flow id="typeR4_11" route="R4"  color="0,1,1"  begin="3301" end= "3600" number="2" type="type1">
     </flow>
         <flow id="typeR5_11" route="R5"  color="1,0,1"  begin="3301" end= "3600" number="6" type="type1">
     </flow>
         <flow id="typeR6_11" route="R6"  color="0,1,1"  begin="3301" end= "3600" number="1" type="type1">
     </flow>
         <flow id="typeR7_11" route="R7"  color="1,0,1"  begin="3301" end= "3600" number="1" type="type1">
     </flow>
         <flow id="typeR811" route="R8"  color="0,1,1"  begin="3301" end= "3600" number="2" type="type1">
     </flow>
         <flow id="typeR9_12" route="R9"  color="1,1,0"  begin="3601" end= "3900" number="18" type="type1">
     </flow>
         <flow id="typeR10_12" route="R10"  color="1,1,0"  begin="3601" end= "3900" number="11" type="type1">
     </flow>
         <flow id="typeR11_12" route="R11"  color="1,1,0"  begin="3601" end= "3900" number="16" type="type1">
     </flow>
         <flow id="typeR12_12" route="R12"  color="1,1,0"  begin="3601" end= "3900" number="11" type="type1">
     </flow>
         <flow id="typeR1_12" route="R1"  color="1,0,1"  begin="3601" end= "3900" number="4" type="type1">
     </flow>
         <flow id="typeR2_12" route="R2"  color="0,1,1"  begin="3601" end= "3900" number="1" type="type1">
     </flow>
         <flow id="typeR3_12" route="R3"  color="1,0,1"  begin="3601" end= "3900" number="1" type="type1">
     </flow>
         <flow id="typeR4_12" route="R4"  color="0,1,1"  begin="3601" end= "3900" number="3" type="type1">
     </flow>
         <flow id="typeR5_12" route="R5"  color="1,0,1"  begin="3601" end= "3900" number="4" type="type1">
     </flow>
         <flow id="typeR6_12" route="R6"  color="0,1,1"  begin="3601" end= "3900" number="2" type="type1">
     </flow>
         <flow id="typeR7_12" route="R7"  color="1,0,1"  begin="3601" end= "3900" number="1" type="type1">
     </flow>
         <flow id="typeR812" route="R8"  color="0,1,1"  begin="3601" end= "3900" number="3" type="type1">
     </flow>
         <flow id="typeR9_13" route="R9"  color="1,1,0"  begin="3901" end= "4200" number="18" type="type1">
     </flow>
         <flow id="typeR10_13" route="R10"  color="1,1,0"  begin="3901" end= "4200" number="14" type="type1">
     </flow>
         <flow id="typeR11_13" route="R11"  color="1,1,0"  begin="3901" end= "4200" number="20" type="type1">
     </flow>
         <flow id="typeR12_13" route="R12"  color="1,1,0"  begin="3901" end= "4200" number="19" type="type1">
     </flow>
         <flow id="typeR1_13" route="R1"  color="1,0,1"  begin="3901" end= "4200" number="4" type="type1">
     </flow>
         <flow id="typeR2_13" route="R2"  color="0,1,1"  begin="3901" end= "4200" number="1" type="type1">
     </flow>
         <flow id="typeR3_13" route="R3"  color="1,0,1"  begin="3901" end= "4200" number="1" type="type1">
     </flow>
         <flow id="typeR4_13" route="R4"  color="0,1,1"  begin="3901" end= "4200" number="2" type="type1">
     </flow>
         <flow id="typeR5_13" route="R5"  color="1,0,1"  begin="3901" end= "4200" number="4" type="type1">
     </flow>
         <flow id="typeR6_13" route="R6"  color="0,1,1"  begin="3901" end= "4200" number="2" type="type1">
     </flow>
         <flow id="typeR7_13" route="R7"  color="1,0,1"  begin="3901" end= "4200" number="1" type="type1">
     </flow>
         <flow id="typeR813" route="R8"  color="0,1,1"  begin="3901" end= "4200" number="3" type="type1">
     </flow>
         <flow id="typeR9_14" route="R9"  color="1,1,0"  begin="4201" end= "4500" number="15" type="type1">
     </flow>
         <flow id="typeR10_14" route="R10"  color="1,1,0"  begin="4201" end= "4500" number="19" type="type1">
     </flow>
         <flow id="typeR11_14" route="R11"  color="1,1,0"  begin="4201" end= "4500" number="13" type="type1">
     </flow>
         <flow id="typeR12_14" route="R12"  color="1,1,0"  begin="4201" end= "4500" number="11" type="type1">
     </flow>
         <flow id="typeR1_14" route="R1"  color="1,0,1"  begin="4201" end= "4500" number="6" type="type1">
     </flow>
         <flow id="typeR2_14" route="R2"  color="0,1,1"  begin="4201" end= "4500" number="2" type="type1">
     </flow>
         <flow id="typeR3_14" route="R3"  color="1,0,1"  begin="4201" end= "4500" number="1" type="type1">
     </flow>
         <flow id="typeR4_14" route="R4"  color="0,1,1"  begin="4201" end= "4500" number="2" type="type1">
     </flow>
         <flow id="typeR5_14" route="R5"  color="1,0,1"  begin="4201" end= "4500" number="2" type="type1">
     </flow>
         <flow id="typeR6_14" route="R6"  color="0,1,1"  begin="4201" end= "4500" number="2" type="type1">
     </flow>
         <flow id="typeR7_14" route="R7"  color="1,0,1"  begin="4201" end= "4500" number="1" type="type1">
     </flow>
         <flow id="typeR814" route="R8"  color="0,1,1"  begin="4201" end= "4500" number="2" type="type1">
     </flow>
         <flow id="typeR9_15" route="R9"  color="1,1,0"  begin="4501" end= "4800" number="10" type="type1">
     </flow>
         <flow id="typeR10_15" route="R10"  color="1,1,0"  begin="4501" end= "4800" number="20" type="type1">
     </flow>
         <flow id="typeR11_15" route="R11"  color="1,1,0"  begin="4501" end= "4800" number="13" type="type1">
     </flow>
         <flow id="typeR12_15" route="R12"  color="1,1,0"  begin="4501" end= "4800" number="14" type="type1">
     </flow>
         <flow id="typeR1_15" route="R1"  color="1,0,1"  begin="4501" end= "4800" number="8" type="type1">
     </flow>
         <flow id="typeR2_15" route="R2"  color="0,1,1"  begin="4501" end= "4800" number="1" type="type1">
     </flow>
         <flow id="typeR3_15" route="R3"  color="1,0,1"  begin="4501" end= "4800" number="1" type="type1">
     </flow>
         <flow id="typeR4_15" route="R4"  color="0,1,1"  begin="4501" end= "4800" number="2" type="type1">
     </flow>
         <flow id="typeR5_15" route="R5"  color="1,0,1"  begin="4501" end= "4800" number="4" type="type1">
     </flow>
         <flow id="typeR6_15" route="R6"  color="0,1,1"  begin="4501" end= "4800" number="2" type="type1">
     </flow>
         <flow id="typeR7_15" route="R7"  color="1,0,1"  begin="4501" end= "4800" number="1" type="type1">
     </flow>
         <flow id="typeR815" route="R8"  color="0,1,1"  begin="4501" end= "4800" number="2" type="type1">
     </flow>
         <flow id="typeR9_16" route="R9"  color="1,1,0"  begin="4801" end= "5100" number="11" type="type1">
     </flow>
         <flow id="typeR10_16" route="R10"  color="1,1,0"  begin="4801" end= "5100" number="13" type="type1">
     </flow>
         <flow id="typeR11_16" route="R11"  color="1,1,0"  begin="4801" end= "5100" number="11" type="type1">
     </flow>
         <flow id="typeR12_16" route="R12"  color="1,1,0"  begin="4801" end= "5100" number="16" type="type1">
     </flow>
         <flow id="typeR1_16" route="R1"  color="1,0,1"  begin="4801" end= "5100" number="4" type="type1">
     </flow>
         <flow id="typeR2_16" route="R2"  color="0,1,1"  begin="4801" end= "5100" number="2" type="type1">
     </flow>
         <flow id="typeR3_16" route="R3"  color="1,0,1"  begin="4801" end= "5100" number="1" type="type1">
     </flow>
         <flow id="typeR4_16" route="R4"  color="0,1,1"  begin="4801" end= "5100" number="3" type="type1">
     </flow>
         <flow id="typeR5_16" route="R5"  color="1,0,1"  begin="4801" end= "5100" number="2" type="type1">
     </flow>
         <flow id="typeR6_16" route="R6"  color="0,1,1"  begin="4801" end= "5100" number="2" type="type1">
     </flow>
         <flow id="typeR7_16" route="R7"  color="1,0,1"  begin="4801" end= "5100" number="1" type="type1">
     </flow>
         <flow id="typeR816" route="R8"  color="0,1,1"  begin="4801" end= "5100" number="2" type="type1">
     </flow>
         <flow id="typeR9_17" route="R9"  color="1,1,0"  begin="5101" end= "5400" number="14" type="type1">
     </flow>
         <flow id="typeR10_17" route="R10"  color="1,1,0"  begin="5101" end= "5400" number="17" type="type1">
     </flow>
         <flow id="typeR11_17" route="R11"  color="1,1,0"  begin="5101" end= "5400" number="20" type="type1">
     </flow>
         <flow id="typeR12_17" route="R12"  color="1,1,0"  begin="5101" end= "5400" number="15" type="type1">
     </flow>
         <flow id="typeR1_17" route="R1"  color="1,0,1"  begin="5101" end= "5400" number="4" type="type1">
     </flow>
         <flow id="typeR2_17" route="R2"  color="0,1,1"  begin="5101" end= "5400" number="1" type="type1">
     </flow>
         <flow id="typeR3_17" route="R3"  color="1,0,1"  begin="5101" end= "5400" number="2" type="type1">
     </flow>
         <flow id="typeR4_17" route="R4"  color="0,1,1"  begin="5101" end= "5400" number="3" type="type1">
     </flow>
         <flow id="typeR5_17" route="R5"  color="1,0,1"  begin="5101" end= "5400" number="4" type="type1">
     </flow>
         <flow id="typeR6_17" route="R6"  color="0,1,1"  begin="5101" end= "5400" number="2" type="type1">
     </flow>
         <flow id="typeR7_17" route="R7"  color="1,0,1"  begin="5101" end= "5400" number="1" type="type1">
     </flow>
         <flow id="typeR817" route="R8"  color="0,1,1"  begin="5101" end= "5400" number="2" type="type1">
     </flow>
         <flow id="typeR9_18" route="R9"  color="1,1,0"  begin="5401" end= "5700" number="12" type="type1">
     </flow>
         <flow id="typeR10_18" route="R10"  color="1,1,0"  begin="5401" end= "5700" number="15" type="type1">
     </flow>
         <flow id="typeR11_18" route="R11"  color="1,1,0"  begin="5401" end= "5700" number="15" type="type1">
     </flow>
         <flow id="typeR12_18" route="R12"  color="1,1,0"  begin="5401" end= "5700" number="13" type="type1">
     </flow>
         <flow id="typeR1_18" route="R1"  color="1,0,1"  begin="5401" end= "5700" number="6" type="type1">
     </flow>
         <flow id="typeR2_18" route="R2"  color="0,1,1"  begin="5401" end= "5700" number="2" type="type1">
     </flow>
         <flow id="typeR3_18" route="R3"  color="1,0,1"  begin="5401" end= "5700" number="1" type="type1">
     </flow>
         <flow id="typeR4_18" route="R4"  color="0,1,1"  begin="5401" end= "5700" number="2" type="type1">
     </flow>
         <flow id="typeR5_18" route="R5"  color="1,0,1"  begin="5401" end= "5700" number="4" type="type1">
     </flow>
         <flow id="typeR6_18" route="R6"  color="0,1,1"  begin="5401" end= "5700" number="3" type="type1">
     </flow>
         <flow id="typeR7_18" route="R7"  color="1,0,1"  begin="5401" end= "5700" number="1" type="type1">
     </flow>
         <flow id="typeR818" route="R8"  color="0,1,1"  begin="5401" end= "5700" number="2" type="type1">
     </flow>
         <flow id="typeR9_19" route="R9"  color="1,1,0"  begin="5701" end= "6000" number="20" type="type1">
     </flow>
         <flow id="typeR10_19" route="R10"  color="1,1,0"  begin="5701" end= "6000" number="14" type="type1">
     </flow>
         <flow id="typeR11_19" route="R11"  color="1,1,0"  begin="5701" end= "6000" number="20" type="type1">
     </flow>
         <flow id="typeR12_19" route="R12"  color="1,1,0"  begin="5701" end= "6000" number="20" type="type1">
     </flow>
         <flow id="typeR1_19" route="R1"  color="1,0,1"  begin="5701" end= "6000" number="4" type="type1">
     </flow>
         <flow id="typeR2_19" route="R2"  color="0,1,1"  begin="5701" end= "6000" number="1" type="type1">
     </flow>
         <flow id="typeR3_19" route="R3"  color="1,0,1"  begin="5701" end= "6000" number="1" type="type1">
     </flow>
         <flow id="typeR4_19" route="R4"  color="0,1,1"  begin="5701" end= "6000" number="2" type="type1">
     </flow>
         <flow id="typeR5_19" route="R5"  color="1,0,1"  begin="5701" end= "6000" number="4" type="type1">
     </flow>
         <flow id="typeR6_19" route="R6"  color="0,1,1"  begin="5701" end= "6000" number="2" type="type1">
     </flow>
         <flow id="typeR7_19" route="R7"  color="1,0,1"  begin="5701" end= "6000" number="1" type="type1">
     </flow>
         <flow id="typeR819" route="R8"  color="0,1,1"  begin="5701" end= "6000" number="1" type="type1">
     </flow>
         <flow id="typeR9_20" route="R9"  color="1,1,0"  begin="6001" end= "6300" number="11" type="type1">
     </flow>
         <flow id="typeR10_20" route="R10"  color="1,1,0"  begin="6001" end= "6300" number="19" type="type1">
     </flow>
         <flow id="typeR11_20" route="R11"  color="1,1,0"  begin="6001" end= "6300" number="20" type="type1">
     </flow>
         <flow id="typeR12_20" route="R12"  color="1,1,0"  begin="6001" end= "6300" number="12" type="type1">
     </flow>
         <flow id="typeR1_20" route="R1"  color="1,0,1"  begin="6001" end= "6300" number="4" type="type1">